
     RDKit          2D

 33 33  0  0  0  0  0  0  0  0999 V2000
    7.8901    0.0000    0.0000 O   0  0  0  0  0  0  0  0  0  0  0  0
    7.7475    1.4932    0.0000 O   0  0  0  0  0  0  0  0  0  0  0  0
    7.3249    2.9324    0.0000 O   0  0  0  0  0  0  0  0  0  0  0  0
    6.6376    4.2657    0.0000 O   0  0  0  0  0  0  0  0  0  0  0  0
    5.7103    5.4448    0.0000 O   0  0  0  0  0  0  0  0  0  0  0  0
    4.5767    6.4271    0.0000 O   0  0  0  0  0  0  0  0  0  0  0  0
    3.2777    7.1771    0.0000 O   0  0  0  0  0  0  0  0  0  0  0  0
    1.8602    7.6677    0.0000 O   0  0  0  0  0  0  0  0  0  0  0  0
    0.3754    7.8811    0.0000 O   0  0  0  0  0  0  0  0  0  0  0  0
   -1.1229    7.8098    0.0000 O   0  0  0  0  0  0  0  0  0  0  0  0
   -2.5806    7.4561    0.0000 O   0  0  0  0  0  0  0  0  0  0  0  0
   -3.9450    6.8330    0.0000 O   0  0  0  0  0  0  0  0  0  0  0  0
   -5.1669    5.9629    0.0000 O   0  0  0  0  0  0  0  0  0  0  0  0
   -6.2020    4.8773    0.0000 O   0  0  0  0  0  0  0  0  0  0  0  0
   -7.0130    3.6154    0.0000 O   0  0  0  0  0  0  0  0  0  0  0  0
   -7.5705    2.2229    0.0000 O   0  0  0  0  0  0  0  0  0  0  0  0
   -7.8544    0.7500    0.0000 O   0  0  0  0  0  0  0  0  0  0  0  0
   -7.8544   -0.7500    0.0000 O   0  0  0  0  0  0  0  0  0  0  0  0
   -7.5705   -2.2229    0.0000 O   0  0  0  0  0  0  0  0  0  0  0  0
   -7.0130   -3.6154    0.0000 O   0  0  0  0  0  0  0  0  0  0  0  0
   -6.2020   -4.8773    0.0000 O   0  0  0  0  0  0  0  0  0  0  0  0
   -5.1669   -5.9629    0.0000 O   0  0  0  0  0  0  0  0  0  0  0  0
   -3.9450   -6.8330    0.0000 O   0  0  0  0  0  0  0  0  0  0  0  0
   -2.5806   -7.4561    0.0000 O   0  0  0  0  0  0  0  0  0  0  0  0
   -1.1229   -7.8098    0.0000 O   0  0  0  0  0  0  0  0  0  0  0  0
    0.3754   -7.8811    0.0000 O   0  0  0  0  0  0  0  0  0  0  0  0
    1.8602   -7.6677    0.0000 O   0  0  0  0  0  0  0  0  0  0  0  0
    3.2777   -7.1771    0.0000 O   0  0  0  0  0  0  0  0  0  0  0  0
    4.5767   -6.4271    0.0000 O   0  0  0  0  0  0  0  0  0  0  0  0
    5.7103   -5.4448    0.0000 O   0  0  0  0  0  0  0  0  0  0  0  0
    6.6376   -4.2657    0.0000 O   0  0  0  0  0  0  0  0  0  0  0  0
    7.3249   -2.9324    0.0000 O   0  0  0  0  0  0  0  0  0  0  0  0
    7.7475   -1.4932    0.0000 O   0  0  0  0  0  0  0  0  0  0  0  0
  1  2  1  0
  2  3  1  0
  3  4  1  0
  4  5  1  0
  5  6  1  0
  6  7  1  0
  7  8  1  0
  8  9  1  0
  9 10  1  0
 10 11  1  0
 11 12  1  0
 12 13  1  0
 13 14  1  0
 14 15  1  0
 15 16  1  0
 16 17  1  0
 17 18  1  0
 18 19  1  0
 19 20  1  0
 20 21  1  0
 21 22  1  0
 22 23  1  0
 23 24  1  0
 24 25  1  0
 25 26  1  0
 26 27  1  0
 27 28  1  0
 28 29  1  0
 29 30  1  0
 30 31  1  0
 31 32  1  0
 32 33  1  0
 33  1  1  0
M  END
>  <molecular_weight>  (1) 
527.8321824599997

>  <logp>  (1) 
5.1215999999999955

>  <hbd>  (1) 
0

>  <hba>  (1) 
33

>  <tpsa>  (1) 
433.6199999999997

>  <rotatable_bonds>  (1) 
0

>  <num_rings>  (1) 
1

>  <num_aromatic_rings>  (1) 
1

>  <num_heavy_atoms>  (1) 
33

>  <fraction_sp3>  (1) 
0.0

>  <qed>  (1) 
0.39365862666106477

$$$$

     RDKit          2D

 30 30  0  0  0  0  0  0  0  0999 V2000
    7.1751   -0.0000    0.0000 O   0  0  0  0  0  0  0  0  0  0  0  0
    7.0183   -1.4918    0.0000 O   0  0  0  0  0  0  0  0  0  0  0  0
    6.5548   -2.9184    0.0000 O   0  0  0  0  0  0  0  0  0  0  0  0
    5.8048   -4.2174    0.0000 O   0  0  0  0  0  0  0  0  0  0  0  0
    4.8011   -5.3321    0.0000 O   0  0  0  0  0  0  0  0  0  0  0  0
    3.5875   -6.2138    0.0000 O   0  0  0  0  0  0  0  0  0  0  0  0
    2.2172   -6.8239    0.0000 O   0  0  0  0  0  0  0  0  0  0  0  0
    0.7500   -7.1358    0.0000 O   0  0  0  0  0  0  0  0  0  0  0  0
   -0.7500   -7.1358    0.0000 O   0  0  0  0  0  0  0  0  0  0  0  0
   -2.2172   -6.8239    0.0000 O   0  0  0  0  0  0  0  0  0  0  0  0
   -3.5875   -6.2138    0.0000 O   0  0  0  0  0  0  0  0  0  0  0  0
   -4.8011   -5.3321    0.0000 O   0  0  0  0  0  0  0  0  0  0  0  0
   -5.8048   -4.2174    0.0000 O   0  0  0  0  0  0  0  0  0  0  0  0
   -6.5548   -2.9184    0.0000 O   0  0  0  0  0  0  0  0  0  0  0  0
   -7.0183   -1.4918    0.0000 O   0  0  0  0  0  0  0  0  0  0  0  0
   -7.1751    0.0000    0.0000 O   0  0  0  0  0  0  0  0  0  0  0  0
   -7.0183    1.4918    0.0000 O   0  0  0  0  0  0  0  0  0  0  0  0
   -6.5548    2.9184    0.0000 O   0  0  0  0  0  0  0  0  0  0  0  0
   -5.8048    4.2174    0.0000 O   0  0  0  0  0  0  0  0  0  0  0  0
   -4.8011    5.3321    0.0000 O   0  0  0  0  0  0  0  0  0  0  0  0
   -3.5875    6.2138    0.0000 O   0  0  0  0  0  0  0  0  0  0  0  0
   -2.2172    6.8239    0.0000 O   0  0  0  0  0  0  0  0  0  0  0  0
   -0.7500    7.1358    0.0000 O   0  0  0  0  0  0  0  0  0  0  0  0
    0.7500    7.1358    0.0000 O   0  0  0  0  0  0  0  0  0  0  0  0
    2.2172    6.8239    0.0000 O   0  0  0  0  0  0  0  0  0  0  0  0
    3.5875    6.2138    0.0000 O   0  0  0  0  0  0  0  0  0  0  0  0
    4.8011    5.3321    0.0000 O   0  0  0  0  0  0  0  0  0  0  0  0
    5.8048    4.2174    0.0000 O   0  0  0  0  0  0  0  0  0  0  0  0
    6.5548    2.9184    0.0000 O   0  0  0  0  0  0  0  0  0  0  0  0
    7.0183    1.4918    0.0000 O   0  0  0  0  0  0  0  0  0  0  0  0
  1  2  1  0
  2  3  1  0
  3  4  1  0
  4  5  1  0
  5  6  1  0
  6  7  1  0
  7  8  1  0
  8  9  1  0
  9 10  1  0
 10 11  1  0
 11 12  1  0
 12 13  1  0
 13 14  1  0
 14 15  1  0
 15 16  1  0
 16 17  1  0
 17 18  1  0
 18 19  1  0
 19 20  1  0
 20 21  1  0
 21 22  1  0
 22 23  1  0
 23 24  1  0
 24 25  1  0
 25 26  1  0
 26 27  1  0
 27 28  1  0
 28 29  1  0
 29 30  1  0
 30  1  1  0
M  END
>  <molecular_weight>  (2) 
479.8474385999997

>  <logp>  (2) 
-2.052

>  <hbd>  (2) 
0

>  <hba>  (2) 
30

>  <tpsa>  (2) 
276.8999999999999

>  <rotatable_bonds>  (2) 
0

>  <num_rings>  (2) 
1

>  <num_aromatic_rings>  (2) 
0

>  <num_heavy_atoms>  (2) 
30

>  <fraction_sp3>  (2) 
0.0

>  <qed>  (2) 
0.337046511026476

$$$$

     RDKit          2D

 26 26  0  0  0  0  0  0  0  0999 V2000
    6.2222    0.0000    0.0000 O   0  0  0  0  0  0  0  0  0  0  0  0
    6.0414   -1.4891    0.0000 O   0  0  0  0  0  0  0  0  0  0  0  0
    5.5095   -2.8916    0.0000 O   0  0  0  0  0  0  0  0  0  0  0  0
    4.6574   -4.1261    0.0000 O   0  0  0  0  0  0  0  0  0  0  0  0
    3.5346   -5.1207    0.0000 O   0  0  0  0  0  0  0  0  0  0  0  0
    2.2064   -5.8178    0.0000 O   0  0  0  0  0  0  0  0  0  0  0  0
    0.7500   -6.1768    0.0000 O   0  0  0  0  0  0  0  0  0  0  0  0
   -0.7500   -6.1768    0.0000 O   0  0  0  0  0  0  0  0  0  0  0  0
   -2.2064   -5.8178    0.0000 O   0  0  0  0  0  0  0  0  0  0  0  0
   -3.5346   -5.1207    0.0000 O   0  0  0  0  0  0  0  0  0  0  0  0
   -4.6574   -4.1261    0.0000 O   0  0  0  0  0  0  0  0  0  0  0  0
   -5.5095   -2.8916    0.0000 O   0  0  0  0  0  0  0  0  0  0  0  0
   -6.0414   -1.4891    0.0000 O   0  0  0  0  0  0  0  0  0  0  0  0
   -6.2222    0.0000    0.0000 O   0  0  0  0  0  0  0  0  0  0  0  0
   -6.0414    1.4891    0.0000 O   0  0  0  0  0  0  0  0  0  0  0  0
   -5.5095    2.8916    0.0000 O   0  0  0  0  0  0  0  0  0  0  0  0
   -4.6574    4.1261    0.0000 O   0  0  0  0  0  0  0  0  0  0  0  0
   -3.5346    5.1207    0.0000 O   0  0  0  0  0  0  0  0  0  0  0  0
   -2.2064    5.8178    0.0000 O   0  0  0  0  0  0  0  0  0  0  0  0
   -0.7500    6.1768    0.0000 O   0  0  0  0  0  0  0  0  0  0  0  0
    0.7500    6.1768    0.0000 O   0  0  0  0  0  0  0  0  0  0  0  0
    2.2064    5.8178    0.0000 O   0  0  0  0  0  0  0  0  0  0  0  0
    3.5346    5.1207    0.0000 O   0  0  0  0  0  0  0  0  0  0  0  0
    4.6574    4.1261    0.0000 O   0  0  0  0  0  0  0  0  0  0  0  0
    5.5095    2.8916    0.0000 O   0  0  0  0  0  0  0  0  0  0  0  0
    6.0414    1.4891    0.0000 O   0  0  0  0  0  0  0  0  0  0  0  0
  1  2  1  0
  2  3  1  0
  3  4  1  0
  4  5  1  0
  5  6  1  0
  6  7  1  0
  7  8  1  0
  8  9  1  0
  9 10  1  0
 10 11  1  0
 11 12  1  0
 12 13  1  0
 13 14  1  0
 14 15  1  0
 15 16  1  0
 16 17  1  0
 17 18  1  0
 18 19  1  0
 19 20  1  0
 20 21  1  0
 21 22  1  0
 22 23  1  0
 23 24  1  0
 24 25  1  0
 25 26  1  0
 26  1  1  0
M  END
>  <molecular_weight>  (3) 
415.8677801199998

>  <logp>  (3) 
-1.7784000000000002

>  <hbd>  (3) 
0

>  <hba>  (3) 
26

>  <tpsa>  (3) 
239.9799999999999

>  <rotatable_bonds>  (3) 
0

>  <num_rings>  (3) 
1

>  <num_aromatic_rings>  (3) 
0

>  <num_heavy_atoms>  (3) 
26

>  <fraction_sp3>  (3) 
0.0

>  <qed>  (3) 
0.396191708122557

$$$$

     RDKit          2D

 28 29  0  0  0  0  0  0  0  0999 V2000
    6.8635   -0.7500    0.0000 O   0  0  0  0  0  0  0  0  0  0  0  0
    6.8635    0.7500    0.0000 O   0  0  0  0  0  0  0  0  0  0  0  0
    6.2534    2.1203    0.0000 O   0  0  0  0  0  0  0  0  0  0  0  0
    5.1387    3.1240    0.0000 O   0  0  0  0  0  0  0  0  0  0  0  0
    3.7121    3.5875    0.0000 O   0  0  0  0  0  0  0  0  0  0  0  0
    2.2203    3.4307    0.0000 O   0  0  0  0  0  0  0  0  0  0  0  0
    0.9213    2.6807    0.0000 O   0  0  0  0  0  0  0  0  0  0  0  0
    0.0396    1.4672    0.0000 O   0  0  0  0  0  0  0  0  0  0  0  0
   -0.2722    0.0000    0.0000 C   0  0  0  0  0  0  0  0  0  0  0  0
    0.0396   -1.4672    0.0000 O   0  0  0  0  0  0  0  0  0  0  0  0
    0.9213   -2.6807    0.0000 O   0  0  0  0  0  0  0  0  0  0  0  0
    2.2203   -3.4307    0.0000 O   0  0  0  0  0  0  0  0  0  0  0  0
    3.7121   -3.5875    0.0000 O   0  0  0  0  0  0  0  0  0  0  0  0
    5.1387   -3.1240    0.0000 O   0  0  0  0  0  0  0  0  0  0  0  0
    6.2534   -2.1203    0.0000 O   0  0  0  0  0  0  0  0  0  0  0  0
   -1.2367    1.1587    0.0000 O   0  0  0  0  0  0  0  0  0  0  0  0
   -1.9777    2.0879    0.0000 O   0  0  0  0  0  0  0  0  0  0  0  0
   -3.0485    2.6035    0.0000 O   0  0  0  0  0  0  0  0  0  0  0  0
   -4.2370    2.6035    0.0000 O   0  0  0  0  0  0  0  0  0  0  0  0
   -5.3077    2.0879    0.0000 O   0  0  0  0  0  0  0  0  0  0  0  0
   -6.0487    1.1587    0.0000 O   0  0  0  0  0  0  0  0  0  0  0  0
   -6.3132    0.0000    0.0000 O   0  0  0  0  0  0  0  0  0  0  0  0
   -6.0487   -1.1587    0.0000 O   0  0  0  0  0  0  0  0  0  0  0  0
   -5.3077   -2.0879    0.0000 O   0  0  0  0  0  0  0  0  0  0  0  0
   -4.2370   -2.6035    0.0000 O   0  0  0  0  0  0  0  0  0  0  0  0
   -3.0485   -2.6035    0.0000 O   0  0  0  0  0  0  0  0  0  0  0  0
   -1.9777   -2.0879    0.0000 O   0  0  0  0  0  0  0  0  0  0  0  0
   -1.2367   -1.1587    0.0000 O   0  0  0  0  0  0  0  0  0  0  0  0
  1  2  1  0
  2  3  1  0
  3  4  1  0
  4  5  1  0
  5  6  1  0
  6  7  1  0
  7  8  1  0
  8  9  1  0
  9 10  1  0
 10 11  1  0
 11 12  1  0
 12 13  1  0
 13 14  1  0
 14 15  1  0
  9 16  1  0
 16 17  1  0
 17 18  1  0
 18 19  1  0
 19 20  1  0
 20 21  1  0
 21 22  1  0
 22 23  1  0
 23 24  1  0
 24 25  1  0
 25 26  1  0
 26 27  1  0
 27 28  1  0
 15  1  1  0
 28  9  1  0
M  END
>  <molecular_weight>  (4) 
443.86269473999977

>  <logp>  (4) 
-2.0519000000000003

>  <hbd>  (4) 
0

>  <hba>  (4) 
27

>  <tpsa>  (4) 
249.2099999999999

>  <rotatable_bonds>  (4) 
0

>  <num_rings>  (4) 
2

>  <num_aromatic_rings>  (4) 
0

>  <num_heavy_atoms>  (4) 
28

>  <fraction_sp3>  (4) 
1.0

>  <qed>  (4) 
0.36429891702739686

$$$$

     RDKit          2D

 23 23  0  0  0  0  0  0  0  0999 V2000
    5.5080   -0.0000    0.0000 O   0  0  0  0  0  0  0  0  0  0  0  0
    5.3037    1.4860    0.0000 O   0  0  0  0  0  0  0  0  0  0  0  0
    4.7061    2.8618    0.0000 O   0  0  0  0  0  0  0  0  0  0  0  0
    3.7595    4.0254    0.0000 O   0  0  0  0  0  0  0  0  0  0  0  0
    2.5340    4.8904    0.0000 O   0  0  0  0  0  0  0  0  0  0  0  0
    1.1206    5.3928    0.0000 O   0  0  0  0  0  0  0  0  0  0  0  0
   -0.3759    5.4951    0.0000 O   0  0  0  0  0  0  0  0  0  0  0  0
   -1.8445    5.1899    0.0000 O   0  0  0  0  0  0  0  0  0  0  0  0
   -3.1763    4.4998    0.0000 O   0  0  0  0  0  0  0  0  0  0  0  0
   -4.2726    3.4760    0.0000 O   0  0  0  0  0  0  0  0  0  0  0  0
   -5.0520    2.1944    0.0000 O   0  0  0  0  0  0  0  0  0  0  0  0
   -5.4567    0.7500    0.0000 O   0  0  0  0  0  0  0  0  0  0  0  0
   -5.4567   -0.7500    0.0000 O   0  0  0  0  0  0  0  0  0  0  0  0
   -5.0520   -2.1944    0.0000 O   0  0  0  0  0  0  0  0  0  0  0  0
   -4.2726   -3.4760    0.0000 O   0  0  0  0  0  0  0  0  0  0  0  0
   -3.1763   -4.4998    0.0000 O   0  0  0  0  0  0  0  0  0  0  0  0
   -1.8445   -5.1899    0.0000 O   0  0  0  0  0  0  0  0  0  0  0  0
   -0.3759   -5.4951    0.0000 O   0  0  0  0  0  0  0  0  0  0  0  0
    1.1206   -5.3928    0.0000 O   0  0  0  0  0  0  0  0  0  0  0  0
    2.5340   -4.8904    0.0000 O   0  0  0  0  0  0  0  0  0  0  0  0
    3.7595   -4.0254    0.0000 O   0  0  0  0  0  0  0  0  0  0  0  0
    4.7061   -2.8618    0.0000 O   0  0  0  0  0  0  0  0  0  0  0  0
    5.3037   -1.4860    0.0000 O   0  0  0  0  0  0  0  0  0  0  0  0
  1  2  1  0
  2  3  1  0
  3  4  1  0
  4  5  1  0
  5  6  1  0
  6  7  1  0
  7  8  1  0
  8  9  1  0
  9 10  1  0
 10 11  1  0
 11 12  1  0
 12 13  1  0
 13 14  1  0
 14 15  1  0
 15 16  1  0
 16 17  1  0
 17 18  1  0
 18 19  1  0
 19 20  1  0
 20 21  1  0
 21 22  1  0
 22 23  1  0
 23  1  1  0
M  END
>  <molecular_weight>  (5) 
367.88303625999987

>  <logp>  (5) 
3.5695999999999977

>  <hbd>  (5) 
0

>  <hba>  (5) 
23

>  <tpsa>  (5) 
302.21999999999986

>  <rotatable_bonds>  (5) 
0

>  <num_rings>  (5) 
1

>  <num_aromatic_rings>  (5) 
1

>  <num_heavy_atoms>  (5) 
23

>  <fraction_sp3>  (5) 
0.0

>  <qed>  (5) 
0.5896802470502784

$$$$

     RDKit          2D

 35 35  0  0  0  0  0  0  0  0999 V2000
    8.3669    0.0000    0.0000 O   0  0  0  0  0  0  0  0  0  0  0  0
    8.2324    1.4940    0.0000 O   0  0  0  0  0  0  0  0  0  0  0  0
    7.8334    2.9399    0.0000 O   0  0  0  0  0  0  0  0  0  0  0  0
    7.1825    4.2914    0.0000 O   0  0  0  0  0  0  0  0  0  0  0  0
    6.3008    5.5049    0.0000 O   0  0  0  0  0  0  0  0  0  0  0  0
    5.2167    6.5415    0.0000 O   0  0  0  0  0  0  0  0  0  0  0  0
    3.9648    7.3678    0.0000 O   0  0  0  0  0  0  0  0  0  0  0  0
    2.5855    7.9574    0.0000 O   0  0  0  0  0  0  0  0  0  0  0  0
    1.1231    8.2911    0.0000 O   0  0  0  0  0  0  0  0  0  0  0  0
   -0.3754    8.3584    0.0000 O   0  0  0  0  0  0  0  0  0  0  0  0
   -1.8618    8.1571    0.0000 O   0  0  0  0  0  0  0  0  0  0  0  0
   -3.2884    7.6936    0.0000 O   0  0  0  0  0  0  0  0  0  0  0  0
   -4.6093    6.9828    0.0000 O   0  0  0  0  0  0  0  0  0  0  0  0
   -5.7820    6.0475    0.0000 O   0  0  0  0  0  0  0  0  0  0  0  0
   -6.7689    4.9179    0.0000 O   0  0  0  0  0  0  0  0  0  0  0  0
   -7.5383    3.6302    0.0000 O   0  0  0  0  0  0  0  0  0  0  0  0
   -8.0653    2.2259    0.0000 O   0  0  0  0  0  0  0  0  0  0  0  0
   -8.3332    0.7500    0.0000 O   0  0  0  0  0  0  0  0  0  0  0  0
   -8.3332   -0.7500    0.0000 O   0  0  0  0  0  0  0  0  0  0  0  0
   -8.0653   -2.2259    0.0000 O   0  0  0  0  0  0  0  0  0  0  0  0
   -7.5383   -3.6302    0.0000 O   0  0  0  0  0  0  0  0  0  0  0  0
   -6.7689   -4.9179    0.0000 O   0  0  0  0  0  0  0  0  0  0  0  0
   -5.7820   -6.0475    0.0000 O   0  0  0  0  0  0  0  0  0  0  0  0
   -4.6093   -6.9828    0.0000 O   0  0  0  0  0  0  0  0  0  0  0  0
   -3.2884   -7.6936    0.0000 O   0  0  0  0  0  0  0  0  0  0  0  0
   -1.8618   -8.1571    0.0000 O   0  0  0  0  0  0  0  0  0  0  0  0
   -0.3754   -8.3584    0.0000 O   0  0  0  0  0  0  0  0  0  0  0  0
    1.1231   -8.2911    0.0000 O   0  0  0  0  0  0  0  0  0  0  0  0
    2.5855   -7.9574    0.0000 O   0  0  0  0  0  0  0  0  0  0  0  0
    3.9648   -7.3678    0.0000 O   0  0  0  0  0  0  0  0  0  0  0  0
    5.2167   -6.5415    0.0000 O   0  0  0  0  0  0  0  0  0  0  0  0
    6.3008   -5.5049    0.0000 O   0  0  0  0  0  0  0  0  0  0  0  0
    7.1825   -4.2914    0.0000 O   0  0  0  0  0  0  0  0  0  0  0  0
    7.8334   -2.9399    0.0000 O   0  0  0  0  0  0  0  0  0  0  0  0
    8.2324   -1.4940    0.0000 O   0  0  0  0  0  0  0  0  0  0  0  0
  1  2  1  0
  2  3  1  0
  3  4  1  0
  4  5  1  0
  5  6  1  0
  6  7  1  0
  7  8  1  0
  8  9  1  0
  9 10  1  0
 10 11  1  0
 11 12  1  0
 12 13  1  0
 13 14  1  0
 14 15  1  0
 15 16  1  0
 16 17  1  0
 17 18  1  0
 18 19  1  0
 19 20  1  0
 20 21  1  0
 21 22  1  0
 22 23  1  0
 23 24  1  0
 24 25  1  0
 25 26  1  0
 26 27  1  0
 27 28  1  0
 28 29  1  0
 29 30  1  0
 30 31  1  0
 31 32  1  0
 32 33  1  0
 33 34  1  0
 34 35  1  0
 35  1  1  0
M  END
>  <molecular_weight>  (6) 
559.8220116999997

>  <logp>  (6) 
5.431999999999995

>  <hbd>  (6) 
0

>  <hba>  (6) 
35

>  <tpsa>  (6) 
459.8999999999997

>  <rotatable_bonds>  (6) 
0

>  <num_rings>  (6) 
1

>  <num_aromatic_rings>  (6) 
1

>  <num_heavy_atoms>  (6) 
35

>  <fraction_sp3>  (6) 
0.0

>  <qed>  (6) 
0.35636354986838054

$$$$

     RDKit          2D

 27 27  0  0  0  0  0  0  0  0999 V2000
    6.4603   -0.0000    0.0000 O   0  0  0  0  0  0  0  0  0  0  0  0
    6.2862    1.4899    0.0000 O   0  0  0  0  0  0  0  0  0  0  0  0
    5.7732    2.8994    0.0000 O   0  0  0  0  0  0  0  0  0  0  0  0
    4.9489    4.1526    0.0000 O   0  0  0  0  0  0  0  0  0  0  0  0
    3.8578    5.1820    0.0000 O   0  0  0  0  0  0  0  0  0  0  0  0
    2.5588    5.9320    0.0000 O   0  0  0  0  0  0  0  0  0  0  0  0
    1.1218    6.3622    0.0000 O   0  0  0  0  0  0  0  0  0  0  0  0
   -0.3756    6.4494    0.0000 O   0  0  0  0  0  0  0  0  0  0  0  0
   -1.8528    6.1889    0.0000 O   0  0  0  0  0  0  0  0  0  0  0  0
   -3.2302    5.5948    0.0000 O   0  0  0  0  0  0  0  0  0  0  0  0
   -4.4334    4.6991    0.0000 O   0  0  0  0  0  0  0  0  0  0  0  0
   -5.3975    3.5500    0.0000 O   0  0  0  0  0  0  0  0  0  0  0  0
   -6.0707    2.2096    0.0000 O   0  0  0  0  0  0  0  0  0  0  0  0
   -6.4167    0.7500    0.0000 O   0  0  0  0  0  0  0  0  0  0  0  0
   -6.4167   -0.7500    0.0000 O   0  0  0  0  0  0  0  0  0  0  0  0
   -6.0707   -2.2096    0.0000 O   0  0  0  0  0  0  0  0  0  0  0  0
   -5.3975   -3.5500    0.0000 O   0  0  0  0  0  0  0  0  0  0  0  0
   -4.4334   -4.6991    0.0000 O   0  0  0  0  0  0  0  0  0  0  0  0
   -3.2302   -5.5948    0.0000 O   0  0  0  0  0  0  0  0  0  0  0  0
   -1.8528   -6.1889    0.0000 O   0  0  0  0  0  0  0  0  0  0  0  0
   -0.3756   -6.4494    0.0000 O   0  0  0  0  0  0  0  0  0  0  0  0
    1.1218   -6.3622    0.0000 O   0  0  0  0  0  0  0  0  0  0  0  0
    2.5588   -5.9320    0.0000 O   0  0  0  0  0  0  0  0  0  0  0  0
    3.8578   -5.1820    0.0000 O   0  0  0  0  0  0  0  0  0  0  0  0
    4.9489   -4.1526    0.0000 O   0  0  0  0  0  0  0  0  0  0  0  0
    5.7732   -2.8994    0.0000 O   0  0  0  0  0  0  0  0  0  0  0  0
    6.2862   -1.4899    0.0000 O   0  0  0  0  0  0  0  0  0  0  0  0
  1  2  1  0
  2  3  1  0
  3  4  1  0
  4  5  1  0
  5  6  1  0
  6  7  1  0
  7  8  1  0
  8  9  1  0
  9 10  1  0
 10 11  1  0
 11 12  1  0
 12 13  1  0
 13 14  1  0
 14 15  1  0
 15 16  1  0
 16 17  1  0
 17 18  1  0
 18 19  1  0
 19 20  1  0
 20 21  1  0
 21 22  1  0
 22 23  1  0
 23 24  1  0
 24 25  1  0
 25 26  1  0
 26 27  1  0
 27  1  1  0
M  END
>  <molecular_weight>  (7) 
431.86269473999977

>  <logp>  (7) 
4.190399999999997

>  <hbd>  (7) 
0

>  <hba>  (7) 
27

>  <tpsa>  (7) 
354.7799999999998

>  <rotatable_bonds>  (7) 
0

>  <num_rings>  (7) 
1

>  <num_aromatic_rings>  (7) 
1

>  <num_heavy_atoms>  (7) 
27

>  <fraction_sp3>  (7) 
0.0

>  <qed>  (7) 
0.5176642144518437

$$$$

     RDKit          2D

 23 25  0  0  0  0  0  0  0  0999 V2000
    4.3425   -1.0629    0.0000 O   0  0  0  0  0  0  0  0  0  0  0  0
    4.3016    0.4366    0.0000 O   0  0  0  0  0  0  0  0  0  0  0  0
    3.3064    1.5589    0.0000 O   0  0  0  0  0  0  0  0  0  0  0  0
    1.8226    1.7790    0.0000 O   0  0  0  0  0  0  0  0  0  0  0  0
    0.5446    0.9938    0.0000 O   0  0  0  0  0  0  0  0  0  0  0  0
    0.0702   -0.4292    0.0000 C   0  0  0  0  0  0  0  0  0  0  0  0
    0.6215   -1.8242    0.0000 O   0  0  0  0  0  0  0  0  0  0  0  0
    1.9405   -2.5385    0.0000 O   0  0  0  0  0  0  0  0  0  0  0  0
    3.4101   -2.2378    0.0000 O   0  0  0  0  0  0  0  0  0  0  0  0
   -0.4042   -1.8522    0.0000 O   0  0  0  0  0  0  0  0  0  0  0  0
   -1.6823   -2.6374    0.0000 O   0  0  0  0  0  0  0  0  0  0  0  0
   -3.1660   -2.4173    0.0000 O   0  0  0  0  0  0  0  0  0  0  0  0
   -4.1612   -1.2950    0.0000 O   0  0  0  0  0  0  0  0  0  0  0  0
   -4.2022    0.2044    0.0000 O   0  0  0  0  0  0  0  0  0  0  0  0
   -3.2697    1.3794    0.0000 O   0  0  0  0  0  0  0  0  0  0  0  0
   -1.8001    1.6801    0.0000 O   0  0  0  0  0  0  0  0  0  0  0  0
   -0.4811    0.9658    0.0000 C   0  0  0  0  0  0  0  0  0  0  0  0
    0.0516    0.6385    0.0000 O   0  0  0  0  0  0  0  0  0  0  0  0
   -0.3056    1.4058    0.0000 O   0  0  0  0  0  0  0  0  0  0  0  0
    0.0765    1.1313    0.0000 O   0  0  0  0  0  0  0  0  0  0  0  0
   -0.2501    1.4996    0.0000 O   0  0  0  0  0  0  0  0  0  0  0  0
   -0.0233    1.0874    0.0000 O   0  0  0  0  0  0  0  0  0  0  0  0
   -0.7423    1.5339    0.0000 O   0  0  0  0  0  0  0  0  0  0  0  0
  1  2  1  0
  2  3  1  0
  3  4  1  0
  4  5  1  0
  5  6  1  0
  6  7  1  0
  7  8  1  0
  8  9  1  0
  6 10  1  0
 10 11  1  0
 11 12  1  0
 12 13  1  0
 13 14  1  0
 14 15  1  0
 15 16  1  0
 16 17  1  0
 17 18  1  0
 18 19  1  0
 19 20  1  0
 20 21  1  0
 21 22  1  0
 22 23  1  0
  9  1  1  0
 23 17  1  0
 17  6  1  0
M  END
>  <molecular_weight>  (8) 
359.89320701999986

>  <logp>  (8) 
-1.8466000000000002

>  <hbd>  (8) 
0

>  <hba>  (8) 
21

>  <tpsa>  (8) 
193.82999999999996

>  <rotatable_bonds>  (8) 
0

>  <num_rings>  (8) 
3

>  <num_aromatic_rings>  (8) 
0

>  <num_heavy_atoms>  (8) 
23

>  <fraction_sp3>  (8) 
1.0

>  <qed>  (8) 
0.43614713627845614

$$$$

     RDKit          2D

 24 26  0  0  0  0  0  0  0  0999 V2000
    4.4832   -0.3221    0.0000 O   0  0  0  0  0  0  0  0  0  0  0  0
    4.4779    1.1779    0.0000 O   0  0  0  0  0  0  0  0  0  0  0  0
    3.5096    2.3236    0.0000 O   0  0  0  0  0  0  0  0  0  0  0  0
    2.0315    2.5788    0.0000 O   0  0  0  0  0  0  0  0  0  0  0  0
    0.7351    1.8242    0.0000 O   0  0  0  0  0  0  0  0  0  0  0  0
    0.2271    0.4129    0.0000 C   0  0  0  0  0  0  0  0  0  0  0  0
    0.7451   -0.9948    0.0000 O   0  0  0  0  0  0  0  0  0  0  0  0
    2.0468   -1.7402    0.0000 O   0  0  0  0  0  0  0  0  0  0  0  0
    3.5230   -1.4746    0.0000 O   0  0  0  0  0  0  0  0  0  0  0  0
   -0.2415    1.8378    0.0000 O   0  0  0  0  0  0  0  0  0  0  0  0
   -1.4581    2.7152    0.0000 O   0  0  0  0  0  0  0  0  0  0  0  0
   -2.9581    2.7099    0.0000 O   0  0  0  0  0  0  0  0  0  0  0  0
   -4.1685    1.8240    0.0000 O   0  0  0  0  0  0  0  0  0  0  0  0
   -4.6270    0.3957    0.0000 O   0  0  0  0  0  0  0  0  0  0  0  0
   -4.1584   -1.0292    0.0000 O   0  0  0  0  0  0  0  0  0  0  0  0
   -2.9418   -1.9066    0.0000 O   0  0  0  0  0  0  0  0  0  0  0  0
   -1.4418   -1.9013    0.0000 O   0  0  0  0  0  0  0  0  0  0  0  0
   -0.2314   -1.0153    0.0000 C   0  0  0  0  0  0  0  0  0  0  0  0
   -0.4342   -1.6068    0.0000 O   0  0  0  0  0  0  0  0  0  0  0  0
    0.2363   -1.0904    0.0000 O   0  0  0  0  0  0  0  0  0  0  0  0
    0.0521   -1.5232    0.0000 O   0  0  0  0  0  0  0  0  0  0  0  0
    0.3400   -1.1240    0.0000 O   0  0  0  0  0  0  0  0  0  0  0  0
   -0.0126   -1.4354    0.0000 O   0  0  0  0  0  0  0  0  0  0  0  0
    0.2657   -0.6362    0.0000 O   0  0  0  0  0  0  0  0  0  0  0  0
  1  2  1  0
  2  3  1  0
  3  4  1  0
  4  5  1  0
  5  6  1  0
  6  7  1  0
  7  8  1  0
  8  9  1  0
  6 10  1  0
 10 11  1  0
 11 12  1  0
 12 13  1  0
 13 14  1  0
 14 15  1  0
 15 16  1  0
 16 17  1  0
 17 18  1  0
 18 19  1  0
 19 20  1  0
 20 21  1  0
 21 22  1  0
 22 23  1  0
 23 24  1  0
  9  1  1  0
 24 18  1  0
 18  6  1  0
M  END
>  <molecular_weight>  (9) 
375.88812163999984

>  <logp>  (9) 
-1.9150000000000003

>  <hbd>  (9) 
0

>  <hba>  (9) 
22

>  <tpsa>  (9) 
203.05999999999995

>  <rotatable_bonds>  (9) 
0

>  <num_rings>  (9) 
3

>  <num_aromatic_rings>  (9) 
0

>  <num_heavy_atoms>  (9) 
24

>  <fraction_sp3>  (9) 
1.0

>  <qed>  (9) 
0.4225747667031874

$$$$

     RDKit          2D

 34 34  0  0  0  0  0  0  0  0999 V2000
    8.1285    0.0000    0.0000 O   0  0  0  0  0  0  0  0  0  0  0  0
    7.9901   -1.4936    0.0000 O   0  0  0  0  0  0  0  0  0  0  0  0
    7.5796   -2.9363    0.0000 O   0  0  0  0  0  0  0  0  0  0  0  0
    6.9110   -4.2791    0.0000 O   0  0  0  0  0  0  0  0  0  0  0  0
    6.0070   -5.4761    0.0000 O   0  0  0  0  0  0  0  0  0  0  0  0
    4.8985   -6.4867    0.0000 O   0  0  0  0  0  0  0  0  0  0  0  0
    3.6232   -7.2763    0.0000 O   0  0  0  0  0  0  0  0  0  0  0  0
    2.2245   -7.8182    0.0000 O   0  0  0  0  0  0  0  0  0  0  0  0
    0.7500   -8.0938    0.0000 O   0  0  0  0  0  0  0  0  0  0  0  0
   -0.7500   -8.0938    0.0000 O   0  0  0  0  0  0  0  0  0  0  0  0
   -2.2245   -7.8182    0.0000 O   0  0  0  0  0  0  0  0  0  0  0  0
   -3.6232   -7.2763    0.0000 O   0  0  0  0  0  0  0  0  0  0  0  0
   -4.8985   -6.4867    0.0000 O   0  0  0  0  0  0  0  0  0  0  0  0
   -6.0070   -5.4761    0.0000 O   0  0  0  0  0  0  0  0  0  0  0  0
   -6.9110   -4.2791    0.0000 O   0  0  0  0  0  0  0  0  0  0  0  0
   -7.5796   -2.9363    0.0000 O   0  0  0  0  0  0  0  0  0  0  0  0
   -7.9901   -1.4936    0.0000 O   0  0  0  0  0  0  0  0  0  0  0  0
   -8.1285    0.0000    0.0000 O   0  0  0  0  0  0  0  0  0  0  0  0
   -7.9901    1.4936    0.0000 O   0  0  0  0  0  0  0  0  0  0  0  0
   -7.5796    2.9363    0.0000 O   0  0  0  0  0  0  0  0  0  0  0  0
   -6.9110    4.2791    0.0000 O   0  0  0  0  0  0  0  0  0  0  0  0
   -6.0070    5.4761    0.0000 O   0  0  0  0  0  0  0  0  0  0  0  0
   -4.8985    6.4867    0.0000 O   0  0  0  0  0  0  0  0  0  0  0  0
   -3.6232    7.2763    0.0000 O   0  0  0  0  0  0  0  0  0  0  0  0
   -2.2245    7.8182    0.0000 O   0  0  0  0  0  0  0  0  0  0  0  0
   -0.7500    8.0938    0.0000 O   0  0  0  0  0  0  0  0  0  0  0  0
    0.7500    8.0938    0.0000 O   0  0  0  0  0  0  0  0  0  0  0  0
    2.2245    7.8182    0.0000 O   0  0  0  0  0  0  0  0  0  0  0  0
    3.6232    7.2763    0.0000 O   0  0  0  0  0  0  0  0  0  0  0  0
    4.8985    6.4867    0.0000 O   0  0  0  0  0  0  0  0  0  0  0  0
    6.0070    5.4761    0.0000 O   0  0  0  0  0  0  0  0  0  0  0  0
    6.9110    4.2791    0.0000 O   0  0  0  0  0  0  0  0  0  0  0  0
    7.5796    2.9363    0.0000 O   0  0  0  0  0  0  0  0  0  0  0  0
    7.9901    1.4936    0.0000 O   0  0  0  0  0  0  0  0  0  0  0  0
  1  2  1  0
  2  3  1  0
  3  4  1  0
  4  5  1  0
  5  6  1  0
  6  7  1  0
  7  8  1  0
  8  9  1  0
  9 10  1  0
 10 11  1  0
 11 12  1  0
 12 13  1  0
 13 14  1  0
 14 15  1  0
 15 16  1  0
 16 17  1  0
 17 18  1  0
 18 19  1  0
 19 20  1  0
 20 21  1  0
 21 22  1  0
 22 23  1  0
 23 24  1  0
 24 25  1  0
 25 26  1  0
 26 27  1  0
 27 28  1  0
 28 29  1  0
 29 30  1  0
 30 31  1  0
 31 32  1  0
 32 33  1  0
 33 34  1  0
 34  1  1  0
M  END
>  <molecular_weight>  (10) 
543.8270970799997

>  <logp>  (10) 
-2.3256

>  <hbd>  (10) 
0

>  <hba>  (10) 
34

>  <tpsa>  (10) 
313.82

>  <rotatable_bonds>  (10) 
0

>  <num_rings>  (10) 
1

>  <num_aromatic_rings>  (10) 
0

>  <num_heavy_atoms>  (10) 
34

>  <fraction_sp3>  (10) 
0.0

>  <qed>  (10) 
0.28865951805087614

$$$$

     RDKit          2D

 20 20  0  0  0  0  0  0  0  0999 V2000
    4.7943    0.0000    0.0000 O   0  0  0  0  0  0  0  0  0  0  0  0
    4.5597   -1.4815    0.0000 O   0  0  0  0  0  0  0  0  0  0  0  0
    3.8787   -2.8180    0.0000 O   0  0  0  0  0  0  0  0  0  0  0  0
    2.8180   -3.8787    0.0000 O   0  0  0  0  0  0  0  0  0  0  0  0
    1.4815   -4.5597    0.0000 O   0  0  0  0  0  0  0  0  0  0  0  0
   -0.0000   -4.7943    0.0000 O   0  0  0  0  0  0  0  0  0  0  0  0
   -1.4815   -4.5597    0.0000 O   0  0  0  0  0  0  0  0  0  0  0  0
   -2.8180   -3.8787    0.0000 O   0  0  0  0  0  0  0  0  0  0  0  0
   -3.8787   -2.8180    0.0000 O   0  0  0  0  0  0  0  0  0  0  0  0
   -4.5597   -1.4815    0.0000 O   0  0  0  0  0  0  0  0  0  0  0  0
   -4.7943    0.0000    0.0000 O   0  0  0  0  0  0  0  0  0  0  0  0
   -4.5597    1.4815    0.0000 O   0  0  0  0  0  0  0  0  0  0  0  0
   -3.8787    2.8180    0.0000 O   0  0  0  0  0  0  0  0  0  0  0  0
   -2.8180    3.8787    0.0000 O   0  0  0  0  0  0  0  0  0  0  0  0
   -1.4815    4.5597    0.0000 O   0  0  0  0  0  0  0  0  0  0  0  0
    0.0000    4.7943    0.0000 O   0  0  0  0  0  0  0  0  0  0  0  0
    1.4815    4.5597    0.0000 O   0  0  0  0  0  0  0  0  0  0  0  0
    2.8180    3.8787    0.0000 O   0  0  0  0  0  0  0  0  0  0  0  0
    3.8787    2.8180    0.0000 O   0  0  0  0  0  0  0  0  0  0  0  0
    4.5597    1.4815    0.0000 O   0  0  0  0  0  0  0  0  0  0  0  0
  1  2  1  0
  2  3  1  0
  3  4  1  0
  4  5  1  0
  5  6  1  0
  6  7  1  0
  7  8  1  0
  8  9  1  0
  9 10  1  0
 10 11  1  0
 11 12  1  0
 12 13  1  0
 13 14  1  0
 14 15  1  0
 15 16  1  0
 16 17  1  0
 17 18  1  0
 18 19  1  0
 19 20  1  0
 20  1  1  0
M  END
>  <molecular_weight>  (11) 
319.89829239999995

>  <logp>  (11) 
-1.368

>  <hbd>  (11) 
0

>  <hba>  (11) 
20

>  <tpsa>  (11) 
184.59999999999997

>  <rotatable_bonds>  (11) 
0

>  <num_rings>  (11) 
1

>  <num_aromatic_rings>  (11) 
0

>  <num_heavy_atoms>  (11) 
20

>  <fraction_sp3>  (11) 
0.0

>  <qed>  (11) 
0.47498552839499986

$$$$

     RDKit          2D

 31 31  0  0  0  0  0  0  0  0999 V2000
    7.4134   -0.0000    0.0000 O   0  0  0  0  0  0  0  0  0  0  0  0
    7.2616    1.4923    0.0000 O   0  0  0  0  0  0  0  0  0  0  0  0
    6.8126    2.9235    0.0000 O   0  0  0  0  0  0  0  0  0  0  0  0
    6.0846    4.2350    0.0000 O   0  0  0  0  0  0  0  0  0  0  0  0
    5.1076    5.3732    0.0000 O   0  0  0  0  0  0  0  0  0  0  0  0
    3.9214    6.2913    0.0000 O   0  0  0  0  0  0  0  0  0  0  0  0
    2.5747    6.9519    0.0000 O   0  0  0  0  0  0  0  0  0  0  0  0
    1.1226    7.3279    0.0000 O   0  0  0  0  0  0  0  0  0  0  0  0
   -0.3755    7.4039    0.0000 O   0  0  0  0  0  0  0  0  0  0  0  0
   -1.8582    7.1767    0.0000 O   0  0  0  0  0  0  0  0  0  0  0  0
   -3.2648    6.6558    0.0000 O   0  0  0  0  0  0  0  0  0  0  0  0
   -4.5378    5.8623    0.0000 O   0  0  0  0  0  0  0  0  0  0  0  0
   -5.6250    4.8289    0.0000 O   0  0  0  0  0  0  0  0  0  0  0  0
   -6.4819    3.5977    0.0000 O   0  0  0  0  0  0  0  0  0  0  0  0
   -7.0734    2.2193    0.0000 O   0  0  0  0  0  0  0  0  0  0  0  0
   -7.3754    0.7500    0.0000 O   0  0  0  0  0  0  0  0  0  0  0  0
   -7.3754   -0.7500    0.0000 O   0  0  0  0  0  0  0  0  0  0  0  0
   -7.0734   -2.2193    0.0000 O   0  0  0  0  0  0  0  0  0  0  0  0
   -6.4819   -3.5977    0.0000 O   0  0  0  0  0  0  0  0  0  0  0  0
   -5.6250   -4.8289    0.0000 O   0  0  0  0  0  0  0  0  0  0  0  0
   -4.5378   -5.8623    0.0000 O   0  0  0  0  0  0  0  0  0  0  0  0
   -3.2648   -6.6558    0.0000 O   0  0  0  0  0  0  0  0  0  0  0  0
   -1.8582   -7.1767    0.0000 O   0  0  0  0  0  0  0  0  0  0  0  0
   -0.3755   -7.4039    0.0000 O   0  0  0  0  0  0  0  0  0  0  0  0
    1.1226   -7.3279    0.0000 O   0  0  0  0  0  0  0  0  0  0  0  0
    2.5747   -6.9519    0.0000 O   0  0  0  0  0  0  0  0  0  0  0  0
    3.9214   -6.2913    0.0000 O   0  0  0  0  0  0  0  0  0  0  0  0
    5.1076   -5.3732    0.0000 O   0  0  0  0  0  0  0  0  0  0  0  0
    6.0846   -4.2350    0.0000 O   0  0  0  0  0  0  0  0  0  0  0  0
    6.8126   -2.9235    0.0000 O   0  0  0  0  0  0  0  0  0  0  0  0
    7.2616   -1.4923    0.0000 O   0  0  0  0  0  0  0  0  0  0  0  0
  1  2  1  0
  2  3  1  0
  3  4  1  0
  4  5  1  0
  5  6  1  0
  6  7  1  0
  7  8  1  0
  8  9  1  0
  9 10  1  0
 10 11  1  0
 11 12  1  0
 12 13  1  0
 13 14  1  0
 14 15  1  0
 15 16  1  0
 16 17  1  0
 17 18  1  0
 18 19  1  0
 19 20  1  0
 20 21  1  0
 21 22  1  0
 22 23  1  0
 23 24  1  0
 24 25  1  0
 25 26  1  0
 26 27  1  0
 27 28  1  0
 28 29  1  0
 29 30  1  0
 30 31  1  0
 31  1  1  0
M  END
>  <molecular_weight>  (12) 
495.84235321999967

>  <logp>  (12) 
4.811199999999996

>  <hbd>  (12) 
0

>  <hba>  (12) 
31

>  <tpsa>  (12) 
407.33999999999975

>  <rotatable_bonds>  (12) 
0

>  <num_rings>  (12) 
1

>  <num_aromatic_rings>  (12) 
1

>  <num_heavy_atoms>  (12) 
31

>  <fraction_sp3>  (12) 
0.0

>  <qed>  (12) 
0.4341310281251453

$$$$

     RDKit          2D

 32 32  0  0  0  0  0  0  0  0999 V2000
    7.6517    0.0000    0.0000 O   0  0  0  0  0  0  0  0  0  0  0  0
    7.5047   -1.4928    0.0000 O   0  0  0  0  0  0  0  0  0  0  0  0
    7.0693   -2.9282    0.0000 O   0  0  0  0  0  0  0  0  0  0  0  0
    6.3622   -4.2511    0.0000 O   0  0  0  0  0  0  0  0  0  0  0  0
    5.4106   -5.4106    0.0000 O   0  0  0  0  0  0  0  0  0  0  0  0
    4.2511   -6.3622    0.0000 O   0  0  0  0  0  0  0  0  0  0  0  0
    2.9282   -7.0693    0.0000 O   0  0  0  0  0  0  0  0  0  0  0  0
    1.4928   -7.5047    0.0000 O   0  0  0  0  0  0  0  0  0  0  0  0
   -0.0000   -7.6517    0.0000 O   0  0  0  0  0  0  0  0  0  0  0  0
   -1.4928   -7.5047    0.0000 O   0  0  0  0  0  0  0  0  0  0  0  0
   -2.9282   -7.0693    0.0000 O   0  0  0  0  0  0  0  0  0  0  0  0
   -4.2511   -6.3622    0.0000 O   0  0  0  0  0  0  0  0  0  0  0  0
   -5.4106   -5.4106    0.0000 O   0  0  0  0  0  0  0  0  0  0  0  0
   -6.3622   -4.2511    0.0000 O   0  0  0  0  0  0  0  0  0  0  0  0
   -7.0693   -2.9282    0.0000 O   0  0  0  0  0  0  0  0  0  0  0  0
   -7.5047   -1.4928    0.0000 O   0  0  0  0  0  0  0  0  0  0  0  0
   -7.6517    0.0000    0.0000 O   0  0  0  0  0  0  0  0  0  0  0  0
   -7.5047    1.4928    0.0000 O   0  0  0  0  0  0  0  0  0  0  0  0
   -7.0693    2.9282    0.0000 O   0  0  0  0  0  0  0  0  0  0  0  0
   -6.3622    4.2511    0.0000 O   0  0  0  0  0  0  0  0  0  0  0  0
   -5.4106    5.4106    0.0000 O   0  0  0  0  0  0  0  0  0  0  0  0
   -4.2511    6.3622    0.0000 O   0  0  0  0  0  0  0  0  0  0  0  0
   -2.9282    7.0693    0.0000 O   0  0  0  0  0  0  0  0  0  0  0  0
   -1.4928    7.5047    0.0000 O   0  0  0  0  0  0  0  0  0  0  0  0
    0.0000    7.6517    0.0000 O   0  0  0  0  0  0  0  0  0  0  0  0
    1.4928    7.5047    0.0000 O   0  0  0  0  0  0  0  0  0  0  0  0
    2.9282    7.0693    0.0000 O   0  0  0  0  0  0  0  0  0  0  0  0
    4.2511    6.3622    0.0000 O   0  0  0  0  0  0  0  0  0  0  0  0
    5.4106    5.4106    0.0000 O   0  0  0  0  0  0  0  0  0  0  0  0
    6.3622    4.2511    0.0000 O   0  0  0  0  0  0  0  0  0  0  0  0
    7.0693    2.9282    0.0000 O   0  0  0  0  0  0  0  0  0  0  0  0
    7.5047    1.4928    0.0000 O   0  0  0  0  0  0  0  0  0  0  0  0
  1  2  1  0
  2  3  1  0
  3  4  1  0
  4  5  1  0
  5  6  1  0
  6  7  1  0
  7  8  1  0
  8  9  1  0
  9 10  1  0
 10 11  1  0
 11 12  1  0
 12 13  1  0
 13 14  1  0
 14 15  1  0
 15 16  1  0
 16 17  1  0
 17 18  1  0
 18 19  1  0
 19 20  1  0
 20 21  1  0
 21 22  1  0
 22 23  1  0
 23 24  1  0
 24 25  1  0
 25 26  1  0
 26 27  1  0
 27 28  1  0
 28 29  1  0
 29 30  1  0
 30 31  1  0
 31 32  1  0
 32  1  1  0
M  END
>  <molecular_weight>  (13) 
511.83726783999964

>  <logp>  (13) 
-2.1888

>  <hbd>  (13) 
0

>  <hba>  (13) 
32

>  <tpsa>  (13) 
295.35999999999996

>  <rotatable_bonds>  (13) 
0

>  <num_rings>  (13) 
1

>  <num_aromatic_rings>  (13) 
0

>  <num_heavy_atoms>  (13) 
32

>  <fraction_sp3>  (13) 
0.0

>  <qed>  (13) 
0.31118976992016006

$$$$

     RDKit          2D

 21 21  0  0  0  0  0  0  0  0999 V2000
    5.0321   -0.0000    0.0000 O   0  0  0  0  0  0  0  0  0  0  0  0
    4.8086    1.4832    0.0000 O   0  0  0  0  0  0  0  0  0  0  0  0
    4.1577    2.8347    0.0000 O   0  0  0  0  0  0  0  0  0  0  0  0
    3.1375    3.9343    0.0000 O   0  0  0  0  0  0  0  0  0  0  0  0
    1.8384    4.6843    0.0000 O   0  0  0  0  0  0  0  0  0  0  0  0
    0.3761    5.0181    0.0000 O   0  0  0  0  0  0  0  0  0  0  0  0
   -1.1198    4.9060    0.0000 O   0  0  0  0  0  0  0  0  0  0  0  0
   -2.5161    4.3580    0.0000 O   0  0  0  0  0  0  0  0  0  0  0  0
   -3.6888    3.4227    0.0000 O   0  0  0  0  0  0  0  0  0  0  0  0
   -4.5338    2.1834    0.0000 O   0  0  0  0  0  0  0  0  0  0  0  0
   -4.9759    0.7500    0.0000 O   0  0  0  0  0  0  0  0  0  0  0  0
   -4.9759   -0.7500    0.0000 O   0  0  0  0  0  0  0  0  0  0  0  0
   -4.5338   -2.1834    0.0000 O   0  0  0  0  0  0  0  0  0  0  0  0
   -3.6888   -3.4227    0.0000 O   0  0  0  0  0  0  0  0  0  0  0  0
   -2.5161   -4.3580    0.0000 O   0  0  0  0  0  0  0  0  0  0  0  0
   -1.1198   -4.9060    0.0000 O   0  0  0  0  0  0  0  0  0  0  0  0
    0.3761   -5.0181    0.0000 O   0  0  0  0  0  0  0  0  0  0  0  0
    1.8384   -4.6843    0.0000 O   0  0  0  0  0  0  0  0  0  0  0  0
    3.1375   -3.9343    0.0000 O   0  0  0  0  0  0  0  0  0  0  0  0
    4.1577   -2.8347    0.0000 O   0  0  0  0  0  0  0  0  0  0  0  0
    4.8086   -1.4832    0.0000 O   0  0  0  0  0  0  0  0  0  0  0  0
  1  2  1  0
  2  3  1  0
  3  4  1  0
  4  5  1  0
  5  6  1  0
  6  7  1  0
  7  8  1  0
  8  9  1  0
  9 10  1  0
 10 11  1  0
 11 12  1  0
 12 13  1  0
 13 14  1  0
 14 15  1  0
 15 16  1  0
 16 17  1  0
 17 18  1  0
 18 19  1  0
 19 20  1  0
 20 21  1  0
 21  1  1  0
M  END
>  <molecular_weight>  (14) 
335.8932070199999

>  <logp>  (14) 
3.259199999999998

>  <hbd>  (14) 
0

>  <hba>  (14) 
21

>  <tpsa>  (14) 
275.9399999999999

>  <rotatable_bonds>  (14) 
0

>  <num_rings>  (14) 
1

>  <num_aromatic_rings>  (14) 
1

>  <num_heavy_atoms>  (14) 
21

>  <fraction_sp3>  (14) 
0.0

>  <qed>  (14) 
0.6131421744836286

$$$$

     RDKit          2D

 28 28  0  0  0  0  0  0  0  0999 V2000
    6.6986   -0.0000    0.0000 O   0  0  0  0  0  0  0  0  0  0  0  0
    6.5306   -1.4906    0.0000 O   0  0  0  0  0  0  0  0  0  0  0  0
    6.0352   -2.9064    0.0000 O   0  0  0  0  0  0  0  0  0  0  0  0
    5.2371   -4.1765    0.0000 O   0  0  0  0  0  0  0  0  0  0  0  0
    4.1765   -5.2371    0.0000 O   0  0  0  0  0  0  0  0  0  0  0  0
    2.9064   -6.0352    0.0000 O   0  0  0  0  0  0  0  0  0  0  0  0
    1.4906   -6.5306    0.0000 O   0  0  0  0  0  0  0  0  0  0  0  0
   -0.0000   -6.6986    0.0000 O   0  0  0  0  0  0  0  0  0  0  0  0
   -1.4906   -6.5306    0.0000 O   0  0  0  0  0  0  0  0  0  0  0  0
   -2.9064   -6.0352    0.0000 O   0  0  0  0  0  0  0  0  0  0  0  0
   -4.1765   -5.2371    0.0000 O   0  0  0  0  0  0  0  0  0  0  0  0
   -5.2371   -4.1765    0.0000 O   0  0  0  0  0  0  0  0  0  0  0  0
   -6.0352   -2.9064    0.0000 O   0  0  0  0  0  0  0  0  0  0  0  0
   -6.5306   -1.4906    0.0000 O   0  0  0  0  0  0  0  0  0  0  0  0
   -6.6986    0.0000    0.0000 O   0  0  0  0  0  0  0  0  0  0  0  0
   -6.5306    1.4906    0.0000 O   0  0  0  0  0  0  0  0  0  0  0  0
   -6.0352    2.9064    0.0000 O   0  0  0  0  0  0  0  0  0  0  0  0
   -5.2371    4.1765    0.0000 O   0  0  0  0  0  0  0  0  0  0  0  0
   -4.1765    5.2371    0.0000 O   0  0  0  0  0  0  0  0  0  0  0  0
   -2.9064    6.0352    0.0000 O   0  0  0  0  0  0  0  0  0  0  0  0
   -1.4906    6.5306    0.0000 O   0  0  0  0  0  0  0  0  0  0  0  0
    0.0000    6.6986    0.0000 O   0  0  0  0  0  0  0  0  0  0  0  0
    1.4906    6.5306    0.0000 O   0  0  0  0  0  0  0  0  0  0  0  0
    2.9064    6.0352    0.0000 O   0  0  0  0  0  0  0  0  0  0  0  0
    4.1765    5.2371    0.0000 O   0  0  0  0  0  0  0  0  0  0  0  0
    5.2371    4.1765    0.0000 O   0  0  0  0  0  0  0  0  0  0  0  0
    6.0352    2.9064    0.0000 O   0  0  0  0  0  0  0  0  0  0  0  0
    6.5306    1.4906    0.0000 O   0  0  0  0  0  0  0  0  0  0  0  0
  1  2  1  0
  2  3  1  0
  3  4  1  0
  4  5  1  0
  5  6  1  0
  6  7  1  0
  7  8  1  0
  8  9  1  0
  9 10  1  0
 10 11  1  0
 11 12  1  0
 12 13  1  0
 13 14  1  0
 14 15  1  0
 15 16  1  0
 16 17  1  0
 17 18  1  0
 18 19  1  0
 19 20  1  0
 20 21  1  0
 21 22  1  0
 22 23  1  0
 23 24  1  0
 24 25  1  0
 25 26  1  0
 26 27  1  0
 27 28  1  0
 28  1  1  0
M  END
>  <molecular_weight>  (15) 
447.85760935999974

>  <logp>  (15) 
-1.9152000000000002

>  <hbd>  (15) 
0

>  <hba>  (15) 
28

>  <tpsa>  (15) 
258.4399999999999

>  <rotatable_bonds>  (15) 
0

>  <num_rings>  (15) 
1

>  <num_aromatic_rings>  (15) 
0

>  <num_heavy_atoms>  (15) 
28

>  <fraction_sp3>  (15) 
0.0

>  <qed>  (15) 
0.365707126642186

$$$$

     RDKit          2D

 22 22  0  0  0  0  0  0  0  0999 V2000
    5.2700   -0.0000    0.0000 O   0  0  0  0  0  0  0  0  0  0  0  0
    5.0565   -1.4847    0.0000 O   0  0  0  0  0  0  0  0  0  0  0  0
    4.4334   -2.8492    0.0000 O   0  0  0  0  0  0  0  0  0  0  0  0
    3.4511   -3.9828    0.0000 O   0  0  0  0  0  0  0  0  0  0  0  0
    2.1892   -4.7938    0.0000 O   0  0  0  0  0  0  0  0  0  0  0  0
    0.7500   -5.2164    0.0000 O   0  0  0  0  0  0  0  0  0  0  0  0
   -0.7500   -5.2164    0.0000 O   0  0  0  0  0  0  0  0  0  0  0  0
   -2.1892   -4.7938    0.0000 O   0  0  0  0  0  0  0  0  0  0  0  0
   -3.4511   -3.9828    0.0000 O   0  0  0  0  0  0  0  0  0  0  0  0
   -4.4334   -2.8492    0.0000 O   0  0  0  0  0  0  0  0  0  0  0  0
   -5.0565   -1.4847    0.0000 O   0  0  0  0  0  0  0  0  0  0  0  0
   -5.2700    0.0000    0.0000 O   0  0  0  0  0  0  0  0  0  0  0  0
   -5.0565    1.4847    0.0000 O   0  0  0  0  0  0  0  0  0  0  0  0
   -4.4334    2.8492    0.0000 O   0  0  0  0  0  0  0  0  0  0  0  0
   -3.4511    3.9828    0.0000 O   0  0  0  0  0  0  0  0  0  0  0  0
   -2.1892    4.7938    0.0000 O   0  0  0  0  0  0  0  0  0  0  0  0
   -0.7500    5.2164    0.0000 O   0  0  0  0  0  0  0  0  0  0  0  0
    0.7500    5.2164    0.0000 O   0  0  0  0  0  0  0  0  0  0  0  0
    2.1892    4.7938    0.0000 O   0  0  0  0  0  0  0  0  0  0  0  0
    3.4511    3.9828    0.0000 O   0  0  0  0  0  0  0  0  0  0  0  0
    4.4334    2.8492    0.0000 O   0  0  0  0  0  0  0  0  0  0  0  0
    5.0565    1.4847    0.0000 O   0  0  0  0  0  0  0  0  0  0  0  0
  1  2  1  0
  2  3  1  0
  3  4  1  0
  4  5  1  0
  5  6  1  0
  6  7  1  0
  7  8  1  0
  8  9  1  0
  9 10  1  0
 10 11  1  0
 11 12  1  0
 12 13  1  0
 13 14  1  0
 14 15  1  0
 15 16  1  0
 16 17  1  0
 17 18  1  0
 18 19  1  0
 19 20  1  0
 20 21  1  0
 21 22  1  0
 22  1  1  0
M  END
>  <molecular_weight>  (16) 
351.8881216399999

>  <logp>  (16) 
-1.5048000000000001

>  <hbd>  (16) 
0

>  <hba>  (16) 
22

>  <tpsa>  (16) 
203.05999999999995

>  <rotatable_bonds>  (16) 
0

>  <num_rings>  (16) 
1

>  <num_aromatic_rings>  (16) 
0

>  <num_heavy_atoms>  (16) 
22

>  <fraction_sp3>  (16) 
0.0

>  <qed>  (16) 
0.45432757122726436

$$$$

     RDKit          2D

 29 29  0  0  0  0  0  0  0  0999 V2000
    6.9368   -0.0000    0.0000 O   0  0  0  0  0  0  0  0  0  0  0  0
    6.7746    1.4912    0.0000 O   0  0  0  0  0  0  0  0  0  0  0  0
    6.2957    2.9127    0.0000 O   0  0  0  0  0  0  0  0  0  0  0  0
    5.5223    4.1980    0.0000 O   0  0  0  0  0  0  0  0  0  0  0  0
    4.4908    5.2870    0.0000 O   0  0  0  0  0  0  0  0  0  0  0  0
    3.2493    6.1287    0.0000 O   0  0  0  0  0  0  0  0  0  0  0  0
    1.8558    6.6840    0.0000 O   0  0  0  0  0  0  0  0  0  0  0  0
    0.3756    6.9266    0.0000 O   0  0  0  0  0  0  0  0  0  0  0  0
   -1.1222    6.8454    0.0000 O   0  0  0  0  0  0  0  0  0  0  0  0
   -2.5676    6.4441    0.0000 O   0  0  0  0  0  0  0  0  0  0  0  0
   -3.8928    5.7415    0.0000 O   0  0  0  0  0  0  0  0  0  0  0  0
   -5.0361    4.7704    0.0000 O   0  0  0  0  0  0  0  0  0  0  0  0
   -5.9438    3.5763    0.0000 O   0  0  0  0  0  0  0  0  0  0  0  0
   -6.5737    2.2149    0.0000 O   0  0  0  0  0  0  0  0  0  0  0  0
   -6.8961    0.7500    0.0000 O   0  0  0  0  0  0  0  0  0  0  0  0
   -6.8961   -0.7500    0.0000 O   0  0  0  0  0  0  0  0  0  0  0  0
   -6.5737   -2.2149    0.0000 O   0  0  0  0  0  0  0  0  0  0  0  0
   -5.9438   -3.5763    0.0000 O   0  0  0  0  0  0  0  0  0  0  0  0
   -5.0361   -4.7704    0.0000 O   0  0  0  0  0  0  0  0  0  0  0  0
   -3.8928   -5.7415    0.0000 O   0  0  0  0  0  0  0  0  0  0  0  0
   -2.5676   -6.4441    0.0000 O   0  0  0  0  0  0  0  0  0  0  0  0
   -1.1222   -6.8454    0.0000 O   0  0  0  0  0  0  0  0  0  0  0  0
    0.3756   -6.9266    0.0000 O   0  0  0  0  0  0  0  0  0  0  0  0
    1.8558   -6.6840    0.0000 O   0  0  0  0  0  0  0  0  0  0  0  0
    3.2493   -6.1287    0.0000 O   0  0  0  0  0  0  0  0  0  0  0  0
    4.4908   -5.2870    0.0000 O   0  0  0  0  0  0  0  0  0  0  0  0
    5.5223   -4.1980    0.0000 O   0  0  0  0  0  0  0  0  0  0  0  0
    6.2957   -2.9127    0.0000 O   0  0  0  0  0  0  0  0  0  0  0  0
    6.7746   -1.4912    0.0000 O   0  0  0  0  0  0  0  0  0  0  0  0
  1  2  1  0
  2  3  1  0
  3  4  1  0
  4  5  1  0
  5  6  1  0
  6  7  1  0
  7  8  1  0
  8  9  1  0
  9 10  1  0
 10 11  1  0
 11 12  1  0
 12 13  1  0
 13 14  1  0
 14 15  1  0
 15 16  1  0
 16 17  1  0
 17 18  1  0
 18 19  1  0
 19 20  1  0
 20 21  1  0
 21 22  1  0
 22 23  1  0
 23 24  1  0
 24 25  1  0
 25 26  1  0
 26 27  1  0
 27 28  1  0
 28 29  1  0
 29  1  1  0
M  END
>  <molecular_weight>  (17) 
463.8525239799997

>  <logp>  (17) 
4.500799999999996

>  <hbd>  (17) 
0

>  <hba>  (17) 
29

>  <tpsa>  (17) 
381.0599999999998

>  <rotatable_bonds>  (17) 
0

>  <num_rings>  (17) 
1

>  <num_aromatic_rings>  (17) 
1

>  <num_heavy_atoms>  (17) 
29

>  <fraction_sp3>  (17) 
0.0

>  <qed>  (17) 
0.47610103808295534

$$$$

     RDKit          2D

 25 25  0  0  0  0  0  0  0  0999 V2000
    5.9840    0.0000    0.0000 O   0  0  0  0  0  0  0  0  0  0  0  0
    5.7960    1.4882    0.0000 O   0  0  0  0  0  0  0  0  0  0  0  0
    5.2439    2.8828    0.0000 O   0  0  0  0  0  0  0  0  0  0  0  0
    4.3622    4.0964    0.0000 O   0  0  0  0  0  0  0  0  0  0  0  0
    3.2064    5.0525    0.0000 O   0  0  0  0  0  0  0  0  0  0  0  0
    1.8492    5.6912    0.0000 O   0  0  0  0  0  0  0  0  0  0  0  0
    0.3757    5.9722    0.0000 O   0  0  0  0  0  0  0  0  0  0  0  0
   -1.1213    5.8781    0.0000 O   0  0  0  0  0  0  0  0  0  0  0  0
   -2.5479    5.4145    0.0000 O   0  0  0  0  0  0  0  0  0  0  0  0
   -3.8144    4.6108    0.0000 O   0  0  0  0  0  0  0  0  0  0  0  0
   -4.8412    3.5173    0.0000 O   0  0  0  0  0  0  0  0  0  0  0  0
   -5.5638    2.2029    0.0000 O   0  0  0  0  0  0  0  0  0  0  0  0
   -5.9369    0.7500    0.0000 O   0  0  0  0  0  0  0  0  0  0  0  0
   -5.9369   -0.7500    0.0000 O   0  0  0  0  0  0  0  0  0  0  0  0
   -5.5638   -2.2029    0.0000 O   0  0  0  0  0  0  0  0  0  0  0  0
   -4.8412   -3.5173    0.0000 O   0  0  0  0  0  0  0  0  0  0  0  0
   -3.8144   -4.6108    0.0000 O   0  0  0  0  0  0  0  0  0  0  0  0
   -2.5479   -5.4145    0.0000 O   0  0  0  0  0  0  0  0  0  0  0  0
   -1.1213   -5.8781    0.0000 O   0  0  0  0  0  0  0  0  0  0  0  0
    0.3757   -5.9722    0.0000 O   0  0  0  0  0  0  0  0  0  0  0  0
    1.8492   -5.6912    0.0000 O   0  0  0  0  0  0  0  0  0  0  0  0
    3.2064   -5.0525    0.0000 O   0  0  0  0  0  0  0  0  0  0  0  0
    4.3622   -4.0964    0.0000 O   0  0  0  0  0  0  0  0  0  0  0  0
    5.2439   -2.8828    0.0000 O   0  0  0  0  0  0  0  0  0  0  0  0
    5.7960   -1.4882    0.0000 O   0  0  0  0  0  0  0  0  0  0  0  0
  1  2  1  0
  2  3  1  0
  3  4  1  0
  4  5  1  0
  5  6  1  0
  6  7  1  0
  7  8  1  0
  8  9  1  0
  9 10  1  0
 10 11  1  0
 11 12  1  0
 12 13  1  0
 13 14  1  0
 14 15  1  0
 15 16  1  0
 16 17  1  0
 17 18  1  0
 18 19  1  0
 19 20  1  0
 20 21  1  0
 21 22  1  0
 22 23  1  0
 23 24  1  0
 24 25  1  0
 25  1  1  0
M  END
>  <molecular_weight>  (18) 
399.8728654999998

>  <logp>  (18) 
3.8799999999999972

>  <hbd>  (18) 
0

>  <hba>  (18) 
25

>  <tpsa>  (18) 
328.49999999999983

>  <rotatable_bonds>  (18) 
0

>  <num_rings>  (18) 
1

>  <num_aromatic_rings>  (18) 
1

>  <num_heavy_atoms>  (18) 
25

>  <fraction_sp3>  (18) 
0.0

>  <qed>  (18) 
0.556540910348263

$$$$
